
**** 12/07/15 22:24:35 ********* PSpice 9.2 (Mar 2000) ******** ID# 1 ********

 ** Profile: "SCHEMATIC1-phaseShift"  [ C:\USERS\AMIR\DESKTOP\ELEC3\phaseShift\phaseshift-SCHEMATIC1-phaseShift.sim ] 


 ****     CIRCUIT DESCRIPTION


******************************************************************************




** Creating circuit file "phaseshift-SCHEMATIC1-phaseShift.sim.cir" 
** WARNING: THIS AUTOMATICALLY GENERATED FILE MAY BE OVERWRITTEN BY SUBSEQUENT SIMULATIONS

*Libraries: 
* Local Libraries :
* From [PSPICE NETLIST] section of C:\Program Files\Orcad\PSpice\PSpice.ini file:
.lib "nom.lib" 

*Analysis directives: 
.TRAN  0 100ms 0 
.PROBE V(*) I(*) W(*) D(*) NOISE(*) 
.INC ".\phaseshift-SCHEMATIC1.net" 



**** INCLUDING phaseshift-SCHEMATIC1.net ****
* source PHASESHIFT
E_U1         N00207 0 VALUE {LIMIT(V(N00628,0)*1E6,-15V,+15V)}
R_R5         N05119 N00628  100k  
R_R1         N00628 N00207  29k  
R_R2         N00406 N00628  1k  
U_DSTM1         STIM(1,1) $G_DPWR $G_DGND N05119 IO_STM IO_LEVEL=0 
+ 0 0
+ +10u 3
-------$
ERROR -- Invalid value
+REPEAT FOREVER
+ +10u 0
+  +10u 3
+ ENDREPEAT
-----------$
ERROR -- Bad state value(s)
R_R3         0 N00239  1k  
R_R4         0 N00281  1k  
C_C1         N00239 N00207  68n  
C_C2         N00281 N00239  68n  
C_C3         N00406 N00281  68n  

**** RESUMING phaseshift-SCHEMATIC1-phaseShift.sim.cir ****
.END
